/*--------------------------------*- C++ -*----------------------------------*\
|                                                                             |
|                Generated by the CfdOF workbench for FreeCAD                 |
|                  https://gitlab.com/opensimproject/CfdOF                    |
|                                                                             |
\*---------------------------------------------------------------------------*/
FoamFile
{
    version     2.0;
    format      ascii;
    class       volScalarField;
    object      omega;
}
// * * * * * * * * * * * * * * * * * * * * * * * * * * * * * * * * * * * * * //

dimensions      [0 0 -1 0 0 0 0];

internalField   uniform 57.3;

boundaryField
{

    outlet
    {
        type        inletOutlet;
        inletValue  $internalField;
        value       $internalField;
    }

    inlet
    {
        type            turbulentMixingLengthFrequencyInlet;
        mixingLength    0.1;
        value           $internalField;
    }

    wall
    {
        type        omegaWallFunction;
        value       $internalField;
    }

    rotor_wall
    {
        type        omegaWallFunction;
        value       $internalField;
    }

    defaultFaces
    {
        type        zeroGradient;
    }

}

// ************************************************************************* //
