/*--------------------------------*- C++ -*----------------------------------*\
|                                                                             |
|                Generated by the CfdOF workbench for FreeCAD                 |
|                  https://gitlab.com/opensimproject/CfdOF                    |
|                                                                             |
\*---------------------------------------------------------------------------*/
FoamFile
{
    version     2.0;
    format      ascii;
    class       dictionary;
    object      controlDict;
}
// * * * * * * * * * * * * * * * * * * * * * * * * * * * * * * * * * * * * * //

application     simpleFoam;

startFrom       startTime;

startTime       0;

stopAt          endTime;

deltaT          1;

endTime         2000;

writeControl    timeStep;

writeInterval   100;

purgeWrite      0;

writeFormat     ascii;

writePrecision  8;

runTimeModifiable true;

libs
(
    // Needed for availability of porous baffle boundary in potentialFoam
    #include "turbulenceLib"
);

functions
{
forces_all
{
type forces;
libs ( "libforces.so" );
patches
(
rotor_wall
);
rho  rhoInf;
rhoInf 1.2;
log off;
writeControl timeStep;
writeInterval 1;
CofR ( 0 0 0 );
}


}

// ************************************************************************* //
