/*--------------------------------*- C++ -*----------------------------------*\
| =========                 |                                                 |
| \\      /  F ield         | OpenFOAM: The Open Source CFD Toolbox           |
|  \\    /   O peration     | Version:  2012                                  |
|   \\  /    A nd           | Website:  www.openfoam.com                      |
|    \\/     M anipulation  |                                                 |
\*---------------------------------------------------------------------------*/
FoamFile
{
    version     2.0;
    format      ascii;
    class       dictionary;
    location    "constant/polyMesh";
    object      meshMetaDict;
}
// * * * * * * * * * * * * * * * * * * * * * * * * * * * * * * * * * * * * * //

surfaceFile     "Cut_Geometry.fms";

surfaceMeta
{
    nPoints         726;
    nFacets         1444;
    nPatches        4;
    nFeatureEdges   380;
    patches
    {
        patch_1_0
        {
            type            empty;
            nFacets         24;
        }
        patch_2_0
        {
            type            empty;
            nFacets         24;
        }
        patch_3_0
        {
            type            empty;
            nFacets         52;
        }
        patch_4_0
        {
            type            empty;
            nFacets         1344;
        }
    }
    pointSubsets
    {
    }
    facetSubsets
    {
    }
    featureEdgeSubsets
    {
    }
}
